<?xml version="1.0" encoding="UTF-8"?>

<!-- generated on 10/11/18 18:41:13 by Eclipse SUMO netconvert Version v0_32_0+2095-3c28701755
<configuration xmlns:xsi="http://www.w3.org/2001/XMLSchema-instance" xsi:noNamespaceSchemaLocation="http://sumo.dlr.de/xsd/netconvertConfiguration.xsd">

    <input>
        <node-files value="cross.nod.xml"/>
        <edge-files value="cross.edg.xml"/>
        <connection-files value="cross.con.xml"/>
    </input>

    <output>
        <output-file value="cross.net.xml"/>
    </output>

    <report>
        <verbose value="true"/>
    </report>

</configuration>
-->

<net version="0.27" xmlns:xsi="http://www.w3.org/2001/XMLSchema-instance" xsi:noNamespaceSchemaLocation="http://sumo.dlr.de/xsd/net_file.xsd">

    <location netOffset="510.00,510.00" convBoundary="0.00,0.00,1020.00,1020.00" origBoundary="-510.00,-510.00,510.00,510.00" projParameter="!"/>

    <edge id=":0_0" function="internal">
        <lane id=":0_0_0" index="0" speed="15.28" length="5.00" shape="502.00,521.10 501.81,519.74 501.23,518.77 500.26,518.19 498.90,518.00"/>
    </edge>
    <edge id=":0_1" function="internal">
        <lane id=":0_1_0" index="0" speed="15.28" length="22.20" shape="505.20,521.10 505.20,498.90"/>
    </edge>
    <edge id=":0_2" function="internal">
        <lane id=":0_2_0" index="0" speed="15.28" length="12.14" shape="508.40,521.10 509.19,515.54 511.57,511.58 513.20,510.60"/>
    </edge>
    <edge id=":0_12" function="internal">
        <lane id=":0_12_0" index="0" speed="15.28" length="8.35" shape="513.20,510.60 515.54,509.19 521.10,508.40"/>
    </edge>
    <edge id=":0_3" function="internal">
        <lane id=":0_3_0" index="0" speed="15.28" length="5.00" shape="521.10,518.00 519.74,518.19 518.77,518.77 518.19,519.74 518.00,521.10"/>
    </edge>
    <edge id=":0_4" function="internal">
        <lane id=":0_4_0" index="0" speed="15.28" length="22.20" shape="521.10,514.80 498.90,514.80"/>
    </edge>
    <edge id=":0_5" function="internal">
        <lane id=":0_5_0" index="0" speed="15.28" length="12.14" shape="521.10,511.60 515.54,510.81 511.58,508.43 510.60,506.80"/>
    </edge>
    <edge id=":0_13" function="internal">
        <lane id=":0_13_0" index="0" speed="15.28" length="8.35" shape="510.60,506.80 509.19,504.46 508.40,498.90"/>
    </edge>
    <edge id=":0_6" function="internal">
        <lane id=":0_6_0" index="0" speed="15.28" length="5.00" shape="518.00,498.90 518.19,500.26 518.77,501.23 519.74,501.81 521.10,502.00"/>
    </edge>
    <edge id=":0_7" function="internal">
        <lane id=":0_7_0" index="0" speed="15.28" length="22.20" shape="514.80,498.90 514.80,521.10"/>
    </edge>
    <edge id=":0_8" function="internal">
        <lane id=":0_8_0" index="0" speed="15.28" length="12.14" shape="511.60,498.90 510.81,504.46 508.43,508.42 506.80,509.40"/>
    </edge>
    <edge id=":0_14" function="internal">
        <lane id=":0_14_0" index="0" speed="15.28" length="8.35" shape="506.80,509.40 504.46,510.81 498.90,511.60"/>
    </edge>
    <edge id=":0_9" function="internal">
        <lane id=":0_9_0" index="0" speed="15.28" length="5.00" shape="498.90,502.00 500.26,501.81 501.23,501.23 501.81,500.26 502.00,498.90"/>
    </edge>
    <edge id=":0_10" function="internal">
        <lane id=":0_10_0" index="0" speed="15.28" length="22.20" shape="498.90,505.20 521.10,505.20"/>
    </edge>
    <edge id=":0_11" function="internal">
        <lane id=":0_11_0" index="0" speed="15.28" length="12.14" shape="498.90,508.40 504.46,509.19 508.42,511.57 509.40,513.20"/>
    </edge>
    <edge id=":0_15" function="internal">
        <lane id=":0_15_0" index="0" speed="15.28" length="8.35" shape="509.40,513.20 510.81,515.54 511.60,521.10"/>
    </edge>
    <edge id=":1_0" function="internal">
        <lane id=":1_0_0" index="0" speed="15.28" length="0.10" shape="10.00,518.00 10.00,518.00"/>
        <lane id=":1_0_1" index="1" speed="15.28" length="0.10" shape="10.00,514.80 10.00,514.80"/>
        <lane id=":1_0_2" index="2" speed="15.28" length="0.10" shape="10.00,511.60 10.00,511.60"/>
    </edge>
    <edge id=":1_3" function="internal">
        <lane id=":1_3_0" index="0" speed="15.28" length="0.10" shape="10.00,502.00 10.00,502.00"/>
        <lane id=":1_3_1" index="1" speed="15.28" length="0.10" shape="10.00,505.20 10.00,505.20"/>
        <lane id=":1_3_2" index="2" speed="15.28" length="0.10" shape="10.00,508.40 10.00,508.40"/>
    </edge>
    <edge id=":2_0" function="internal">
        <lane id=":2_0_0" index="0" speed="15.28" length="0.10" shape="1010.00,518.00 1010.00,518.00"/>
        <lane id=":2_0_1" index="1" speed="15.28" length="0.10" shape="1010.00,514.80 1010.00,514.80"/>
        <lane id=":2_0_2" index="2" speed="15.28" length="0.10" shape="1010.00,511.60 1010.00,511.60"/>
    </edge>
    <edge id=":2_3" function="internal">
        <lane id=":2_3_0" index="0" speed="15.28" length="0.10" shape="1010.00,502.00 1010.00,502.00"/>
        <lane id=":2_3_1" index="1" speed="15.28" length="0.10" shape="1010.00,505.20 1010.00,505.20"/>
        <lane id=":2_3_2" index="2" speed="15.28" length="0.10" shape="1010.00,508.40 1010.00,508.40"/>
    </edge>
    <edge id=":3_0" function="internal">
        <lane id=":3_0_0" index="0" speed="15.28" length="0.10" shape="502.00,10.00 502.00,10.00"/>
        <lane id=":3_0_1" index="1" speed="15.28" length="0.10" shape="505.20,10.00 505.20,10.00"/>
        <lane id=":3_0_2" index="2" speed="15.28" length="0.10" shape="508.40,10.00 508.40,10.00"/>
    </edge>
    <edge id=":3_3" function="internal">
        <lane id=":3_3_0" index="0" speed="15.28" length="0.10" shape="518.00,10.00 518.00,10.00"/>
        <lane id=":3_3_1" index="1" speed="15.28" length="0.10" shape="514.80,10.00 514.80,10.00"/>
        <lane id=":3_3_2" index="2" speed="15.28" length="0.10" shape="511.60,10.00 511.60,10.00"/>
    </edge>
    <edge id=":4_0" function="internal">
        <lane id=":4_0_0" index="0" speed="15.28" length="0.10" shape="502.00,1010.00 502.00,1010.00"/>
        <lane id=":4_0_1" index="1" speed="15.28" length="0.10" shape="505.20,1010.00 505.20,1010.00"/>
        <lane id=":4_0_2" index="2" speed="15.28" length="0.10" shape="508.40,1010.00 508.40,1010.00"/>
    </edge>
    <edge id=":4_3" function="internal">
        <lane id=":4_3_0" index="0" speed="15.28" length="0.10" shape="518.00,1010.00 518.00,1010.00"/>
        <lane id=":4_3_1" index="1" speed="15.28" length="0.10" shape="514.80,1010.00 514.80,1010.00"/>
        <lane id=":4_3_2" index="2" speed="15.28" length="0.10" shape="511.60,1010.00 511.60,1010.00"/>
    </edge>
    <edge id=":51_0" function="internal">
        <lane id=":51_0_0" index="0" speed="15.28" length="4.67" shape="0.00,511.60 -1.20,510.80 -1.60,510.00 -1.20,509.20 0.00,508.40"/>
    </edge>
    <edge id=":52_0" function="internal">
        <lane id=":52_0_0" index="0" speed="15.28" length="4.67" shape="1020.00,508.40 1021.20,509.20 1021.60,510.00 1021.20,510.80 1020.00,511.60"/>
    </edge>
    <edge id=":53_0" function="internal">
        <lane id=":53_0_0" index="0" speed="15.28" length="4.67" shape="508.40,0.00 509.20,-1.20 510.00,-1.60 510.80,-1.20 511.60,0.00"/>
    </edge>
    <edge id=":54_0" function="internal">
        <lane id=":54_0_0" index="0" speed="15.28" length="4.67" shape="511.60,1020.00 510.80,1021.20 510.00,1021.60 509.20,1021.20 508.40,1020.00"/>
    </edge>

    <edge id="1i" from="1" to="0" priority="1">
        <lane id="1i_0" index="0" speed="19.44" length="488.90" shape="10.00,502.00 498.90,502.00"/>
        <lane id="1i_1" index="1" speed="19.44" length="488.90" shape="10.00,505.20 498.90,505.20"/>
        <lane id="1i_2" index="2" speed="19.44" length="488.90" shape="10.00,508.40 498.90,508.40"/>
    </edge>
    <edge id="1o" from="0" to="1" priority="1">
        <lane id="1o_0" index="0" speed="11.11" length="488.90" shape="498.90,518.00 10.00,518.00"/>
        <lane id="1o_1" index="1" speed="11.11" length="488.90" shape="498.90,514.80 10.00,514.80"/>
        <lane id="1o_2" index="2" speed="11.11" length="488.90" shape="498.90,511.60 10.00,511.60"/>
    </edge>
    <edge id="2i" from="3" to="0" priority="1">
        <lane id="2i_0" index="0" speed="19.44" length="488.90" shape="518.00,10.00 518.00,498.90"/>
        <lane id="2i_1" index="1" speed="19.44" length="488.90" shape="514.80,10.00 514.80,498.90"/>
        <lane id="2i_2" index="2" speed="19.44" length="488.90" shape="511.60,10.00 511.60,498.90"/>
    </edge>
    <edge id="2o" from="0" to="3" priority="1">
        <lane id="2o_0" index="0" speed="11.11" length="488.90" shape="502.00,498.90 502.00,10.00"/>
        <lane id="2o_1" index="1" speed="11.11" length="488.90" shape="505.20,498.90 505.20,10.00"/>
        <lane id="2o_2" index="2" speed="11.11" length="488.90" shape="508.40,498.90 508.40,10.00"/>
    </edge>
    <edge id="3i" from="2" to="0" priority="1">
        <lane id="3i_0" index="0" speed="19.44" length="488.90" shape="1010.00,518.00 521.10,518.00"/>
        <lane id="3i_1" index="1" speed="19.44" length="488.90" shape="1010.00,514.80 521.10,514.80"/>
        <lane id="3i_2" index="2" speed="19.44" length="488.90" shape="1010.00,511.60 521.10,511.60"/>
    </edge>
    <edge id="3o" from="0" to="2" priority="1">
        <lane id="3o_0" index="0" speed="11.11" length="488.90" shape="521.10,502.00 1010.00,502.00"/>
        <lane id="3o_1" index="1" speed="11.11" length="488.90" shape="521.10,505.20 1010.00,505.20"/>
        <lane id="3o_2" index="2" speed="11.11" length="488.90" shape="521.10,508.40 1010.00,508.40"/>
    </edge>
    <edge id="4i" from="4" to="0" priority="1">
        <lane id="4i_0" index="0" speed="19.44" length="488.90" shape="502.00,1010.00 502.00,521.10"/>
        <lane id="4i_1" index="1" speed="19.44" length="488.90" shape="505.20,1010.00 505.20,521.10"/>
        <lane id="4i_2" index="2" speed="19.44" length="488.90" shape="508.40,1010.00 508.40,521.10"/>
    </edge>
    <edge id="4o" from="0" to="4" priority="1">
        <lane id="4o_0" index="0" speed="11.11" length="488.90" shape="518.00,521.10 518.00,1010.00"/>
        <lane id="4o_1" index="1" speed="11.11" length="488.90" shape="514.80,521.10 514.80,1010.00"/>
        <lane id="4o_2" index="2" speed="11.11" length="488.90" shape="511.60,521.10 511.60,1010.00"/>
    </edge>
    <edge id="51i" from="1" to="51" priority="1">
        <lane id="51i_0" index="0" speed="19.44" length="10.00" shape="10.00,518.00 0.00,518.00"/>
        <lane id="51i_1" index="1" speed="19.44" length="10.00" shape="10.00,514.80 0.00,514.80"/>
        <lane id="51i_2" index="2" speed="19.44" length="10.00" shape="10.00,511.60 0.00,511.60"/>
    </edge>
    <edge id="51o" from="51" to="1" priority="1">
        <lane id="51o_0" index="0" speed="11.11" length="10.00" shape="0.00,502.00 10.00,502.00"/>
        <lane id="51o_1" index="1" speed="11.11" length="10.00" shape="0.00,505.20 10.00,505.20"/>
        <lane id="51o_2" index="2" speed="11.11" length="10.00" shape="0.00,508.40 10.00,508.40"/>
    </edge>
    <edge id="52i" from="2" to="52" priority="1">
        <lane id="52i_0" index="0" speed="19.44" length="10.00" shape="1010.00,502.00 1020.00,502.00"/>
        <lane id="52i_1" index="1" speed="19.44" length="10.00" shape="1010.00,505.20 1020.00,505.20"/>
        <lane id="52i_2" index="2" speed="19.44" length="10.00" shape="1010.00,508.40 1020.00,508.40"/>
    </edge>
    <edge id="52o" from="52" to="2" priority="1">
        <lane id="52o_0" index="0" speed="11.11" length="10.00" shape="1020.00,518.00 1010.00,518.00"/>
        <lane id="52o_1" index="1" speed="11.11" length="10.00" shape="1020.00,514.80 1010.00,514.80"/>
        <lane id="52o_2" index="2" speed="11.11" length="10.00" shape="1020.00,511.60 1010.00,511.60"/>
    </edge>
    <edge id="53i" from="3" to="53" priority="1">
        <lane id="53i_0" index="0" speed="19.44" length="10.00" shape="502.00,10.00 502.00,0.00"/>
        <lane id="53i_1" index="1" speed="19.44" length="10.00" shape="505.20,10.00 505.20,0.00"/>
        <lane id="53i_2" index="2" speed="19.44" length="10.00" shape="508.40,10.00 508.40,0.00"/>
    </edge>
    <edge id="53o" from="53" to="3" priority="1">
        <lane id="53o_0" index="0" speed="11.11" length="10.00" shape="518.00,0.00 518.00,10.00"/>
        <lane id="53o_1" index="1" speed="11.11" length="10.00" shape="514.80,0.00 514.80,10.00"/>
        <lane id="53o_2" index="2" speed="11.11" length="10.00" shape="511.60,0.00 511.60,10.00"/>
    </edge>
    <edge id="54i" from="4" to="54" priority="1">
        <lane id="54i_0" index="0" speed="19.44" length="10.00" shape="518.00,1010.00 518.00,1020.00"/>
        <lane id="54i_1" index="1" speed="19.44" length="10.00" shape="514.80,1010.00 514.80,1020.00"/>
        <lane id="54i_2" index="2" speed="19.44" length="10.00" shape="511.60,1010.00 511.60,1020.00"/>
    </edge>
    <edge id="54o" from="54" to="4" priority="1">
        <lane id="54o_0" index="0" speed="11.11" length="10.00" shape="502.00,1020.00 502.00,1010.00"/>
        <lane id="54o_1" index="1" speed="11.11" length="10.00" shape="505.20,1020.00 505.20,1010.00"/>
        <lane id="54o_2" index="2" speed="11.11" length="10.00" shape="508.40,1020.00 508.40,1010.00"/>
    </edge>

    <tlLogic id="0" type="static" programID="0" offset="0">
        <phase duration="5000" state="GGGGGGGGGGGG"/>
        <phase duration="5000"  state="GGGGGGGGGGGG"/>
        <phase duration="5000"  state="GGGGGGGGGGGG"/>
        <phase duration="5000"  state="GGGGGGGGGGGG"/>
        <phase duration="5000" state="GGGGGGGGGGGG"/>
        <phase duration="5000"  state="GGGGGGGGGGGG"/>
        <phase duration="5000"  state="GGGGGGGGGGGG"/>
        <phase duration="5000"  state="GGGGGGGGGGGG"/>
    </tlLogic>

    <junction id="0" type="traffic_light" x="510.00" y="510.00" incLanes="4i_0 4i_1 4i_2 3i_0 3i_1 3i_2 2i_0 2i_1 2i_2 1i_0 1i_1 1i_2" intLanes=":0_0_0 :0_1_0 :0_12_0 :0_3_0 :0_4_0 :0_13_0 :0_6_0 :0_7_0 :0_14_0 :0_9_0 :0_10_0 :0_15_0" shape="500.40,521.10 519.60,521.10 521.10,519.60 521.10,500.40 519.60,498.90 500.40,498.90 498.90,500.40 498.90,519.60">
        <request index="0"  response="000000000000" foes="000000000000" cont="0"/>
        <request index="1"  response="000000000000" foes="110100010000" cont="0"/>
        <request index="2"  response="000000000000" foes="100010110000" cont="1"/>
        <request index="3"  response="000000000000" foes="000000000000" cont="0"/>
        <request index="4"  response="000000000000" foes="100010000110" cont="0"/>
        <request index="5"  response="000000000000" foes="010110000100" cont="1"/>
        <request index="6"  response="000000000000" foes="000000000000" cont="0"/>
        <request index="7"  response="000000000000" foes="010000110100" cont="0"/>
        <request index="8"  response="000000000000" foes="110000100010" cont="1"/>
        <request index="9"  response="000000000000" foes="000000000000" cont="0"/>
        <request index="10" response="000000000000" foes="000110100010" cont="0"/>
        <request index="11" response="000000000000" foes="000100010110" cont="1"/>
    </junction>
    <junction id="1" type="priority" x="10.00" y="510.00" incLanes="1o_0 1o_1 1o_2 51o_0 51o_1 51o_2" intLanes=":1_0_0 :1_0_1 :1_0_2 :1_3_0 :1_3_1 :1_3_2" shape="10.00,519.60 10.00,500.40 10.00,519.60">
        <request index="0" response="000000" foes="000000" cont="0"/>
        <request index="1" response="000000" foes="000000" cont="0"/>
        <request index="2" response="000000" foes="000000" cont="0"/>
        <request index="3" response="000000" foes="000000" cont="0"/>
        <request index="4" response="000000" foes="000000" cont="0"/>
        <request index="5" response="000000" foes="000000" cont="0"/>
    </junction>
    <junction id="2" type="priority" x="1010.00" y="510.00" incLanes="52o_0 52o_1 52o_2 3o_0 3o_1 3o_2" intLanes=":2_0_0 :2_0_1 :2_0_2 :2_3_0 :2_3_1 :2_3_2" shape="1010.00,519.60 1010.00,500.40 1010.00,519.60">
        <request index="0" response="000000" foes="000000" cont="0"/>
        <request index="1" response="000000" foes="000000" cont="0"/>
        <request index="2" response="000000" foes="000000" cont="0"/>
        <request index="3" response="000000" foes="000000" cont="0"/>
        <request index="4" response="000000" foes="000000" cont="0"/>
        <request index="5" response="000000" foes="000000" cont="0"/>
    </junction>
    <junction id="3" type="priority" x="510.00" y="10.00" incLanes="2o_0 2o_1 2o_2 53o_0 53o_1 53o_2" intLanes=":3_0_0 :3_0_1 :3_0_2 :3_3_0 :3_3_1 :3_3_2" shape="500.40,10.00 519.60,10.00 500.40,10.00">
        <request index="0" response="000000" foes="000000" cont="0"/>
        <request index="1" response="000000" foes="000000" cont="0"/>
        <request index="2" response="000000" foes="000000" cont="0"/>
        <request index="3" response="000000" foes="000000" cont="0"/>
        <request index="4" response="000000" foes="000000" cont="0"/>
        <request index="5" response="000000" foes="000000" cont="0"/>
    </junction>
    <junction id="4" type="priority" x="510.00" y="1010.00" incLanes="54o_0 54o_1 54o_2 4o_0 4o_1 4o_2" intLanes=":4_0_0 :4_0_1 :4_0_2 :4_3_0 :4_3_1 :4_3_2" shape="500.40,1010.00 519.60,1010.00 500.40,1010.00">
        <request index="0" response="000000" foes="000000" cont="0"/>
        <request index="1" response="000000" foes="000000" cont="0"/>
        <request index="2" response="000000" foes="000000" cont="0"/>
        <request index="3" response="000000" foes="000000" cont="0"/>
        <request index="4" response="000000" foes="000000" cont="0"/>
        <request index="5" response="000000" foes="000000" cont="0"/>
    </junction>
    <junction id="51" type="priority" x="0.00" y="510.00" incLanes="51i_0 51i_1 51i_2" intLanes=":51_0_0" shape="0.00,510.00 0.00,519.60 0.00,510.00">
        <request index="0" response="0" foes="0" cont="0"/>
    </junction>
    <junction id="52" type="priority" x="1020.00" y="510.00" incLanes="52i_0 52i_1 52i_2" intLanes=":52_0_0" shape="1020.00,510.00 1020.00,500.40 1020.00,510.00">
        <request index="0" response="0" foes="0" cont="0"/>
    </junction>
    <junction id="53" type="priority" x="510.00" y="0.00" incLanes="53i_0 53i_1 53i_2" intLanes=":53_0_0" shape="510.00,0.00 500.40,0.00 510.00,0.00">
        <request index="0" response="0" foes="0" cont="0"/>
    </junction>
    <junction id="54" type="priority" x="510.00" y="1020.00" incLanes="54i_0 54i_1 54i_2" intLanes=":54_0_0" shape="510.00,1020.00 519.60,1020.00 510.00,1020.00">
        <request index="0" response="0" foes="0" cont="0"/>
    </junction>

    <junction id=":0_12_0" type="internal" x="513.20" y="510.60" incLanes=":0_2_0 2i_1" intLanes=":0_4_0 :0_5_0 :0_7_0 :0_11_0"/>
    <junction id=":0_13_0" type="internal" x="510.60" y="506.80" incLanes=":0_5_0 1i_1" intLanes=":0_2_0 :0_7_0 :0_8_0 :0_10_0"/>
    <junction id=":0_14_0" type="internal" x="506.80" y="509.40" incLanes=":0_8_0 4i_1" intLanes=":0_1_0 :0_5_0 :0_10_0 :0_11_0"/>
    <junction id=":0_15_0" type="internal" x="509.40" y="513.20" incLanes=":0_11_0 3i_1" intLanes=":0_1_0 :0_2_0 :0_4_0 :0_8_0"/>

    <connection from="1i" to="2o" fromLane="0" toLane="0" pass="1" via=":0_9_0" tl="0" linkIndex="9" dir="r" state="O"/>
    <connection from="1i" to="3o" fromLane="1" toLane="1" pass="1" via=":0_10_0" tl="0" linkIndex="10" dir="s" state="o"/>
    <connection from="1i" to="4o" fromLane="2" toLane="2" pass="1" via=":0_11_0" tl="0" linkIndex="11" dir="l" state="o"/>
    <connection from="1o" to="51i" fromLane="0" toLane="0" pass="1" via=":1_0_0" dir="s" state="M"/>
    <connection from="1o" to="51i" fromLane="1" toLane="1" pass="1" via=":1_0_1" dir="s" state="M"/>
    <connection from="1o" to="51i" fromLane="2" toLane="2" pass="1" via=":1_0_2" dir="s" state="M"/>
    <connection from="2i" to="3o" fromLane="0" toLane="0" pass="1" via=":0_6_0" tl="0" linkIndex="6" dir="r" state="O"/>
    <connection from="2i" to="4o" fromLane="1" toLane="1" pass="1" via=":0_7_0" tl="0" linkIndex="7" dir="s" state="O"/>
    <connection from="2i" to="1o" fromLane="2" toLane="2" pass="1" via=":0_8_0" tl="0" linkIndex="8" dir="l" state="o"/>
    <connection from="2o" to="53i" fromLane="0" toLane="0" pass="1" via=":3_0_0" dir="s" state="M"/>
    <connection from="2o" to="53i" fromLane="1" toLane="1" pass="1" via=":3_0_1" dir="s" state="M"/>
    <connection from="2o" to="53i" fromLane="2" toLane="2" pass="1" via=":3_0_2" dir="s" state="M"/>
    <connection from="3i" to="4o" fromLane="0" toLane="0" pass="1" via=":0_3_0" tl="0" linkIndex="3" dir="r" state="O"/>
    <connection from="3i" to="1o" fromLane="1" toLane="1" pass="1" via=":0_4_0" tl="0" linkIndex="4" dir="s" state="o"/>
    <connection from="3i" to="2o" fromLane="2" toLane="2" pass="1" via=":0_5_0" tl="0" linkIndex="5" dir="l" state="o"/>
    <connection from="3o" to="52i" fromLane="0" toLane="0" pass="1" via=":2_3_0" dir="s" state="M"/>
    <connection from="3o" to="52i" fromLane="1" toLane="1" pass="1" via=":2_3_1" dir="s" state="M"/>
    <connection from="3o" to="52i" fromLane="2" toLane="2" pass="1" via=":2_3_2" dir="s" state="M"/>
    <connection from="4i" to="1o" fromLane="0" toLane="0" pass="1" via=":0_0_0" tl="0" linkIndex="0" dir="r" state="O"/>
    <connection from="4i" to="2o" fromLane="1" toLane="1" pass="1" via=":0_1_0" tl="0" linkIndex="1" dir="s" state="O"/>
    <connection from="4i" to="3o" fromLane="2" toLane="2" pass="1" via=":0_2_0" tl="0" linkIndex="2" dir="l" state="o"/>
    <connection from="4o" to="54i" fromLane="0" toLane="0" pass="1" via=":4_3_0" dir="s" state="M"/>
    <connection from="4o" to="54i" fromLane="1" toLane="1" pass="1" via=":4_3_1" dir="s" state="M"/>
    <connection from="4o" to="54i" fromLane="2" toLane="2" pass="1" via=":4_3_2" dir="s" state="M"/>
    <connection from="51i" to="51o" fromLane="2" toLane="2" via=":51_0_0" dir="t" state="M"/>
    <connection from="51o" to="1i" fromLane="0" toLane="0" pass="1" via=":1_3_0" dir="s" state="M"/>
    <connection from="51o" to="1i" fromLane="1" toLane="1" pass="1" via=":1_3_1" dir="s" state="M"/>
    <connection from="51o" to="1i" fromLane="2" toLane="2" pass="1" via=":1_3_2" dir="s" state="M"/>
    <connection from="52i" to="52o" fromLane="2" toLane="2" via=":52_0_0" dir="t" state="M"/>
    <connection from="52o" to="3i" fromLane="0" toLane="0" pass="1" via=":2_0_0" dir="s" state="M"/>
    <connection from="52o" to="3i" fromLane="1" toLane="1" pass="1" via=":2_0_1" dir="s" state="M"/>
    <connection from="52o" to="3i" fromLane="2" toLane="2" pass="1" via=":2_0_2" dir="s" state="M"/>
    <connection from="53i" to="53o" fromLane="2" toLane="2" via=":53_0_0" dir="t" state="M"/>
    <connection from="53o" to="2i" fromLane="0" toLane="0" pass="1" via=":3_3_0" dir="s" state="M"/>
    <connection from="53o" to="2i" fromLane="1" toLane="1" pass="1" via=":3_3_1" dir="s" state="M"/>
    <connection from="53o" to="2i" fromLane="2" toLane="2" pass="1" via=":3_3_2" dir="s" state="M"/>
    <connection from="54i" to="54o" fromLane="2" toLane="2" via=":54_0_0" dir="t" state="M"/>
    <connection from="54o" to="4i" fromLane="0" toLane="0" pass="1" via=":4_0_0" dir="s" state="M"/>
    <connection from="54o" to="4i" fromLane="1" toLane="1" pass="1" via=":4_0_1" dir="s" state="M"/>
    <connection from="54o" to="4i" fromLane="2" toLane="2" pass="1" via=":4_0_2" dir="s" state="M"/>

    <connection from=":0_0" to="1o" fromLane="0" toLane="0" dir="r" state="M"/>
    <connection from=":0_1" to="2o" fromLane="0" toLane="1" dir="s" state="M"/>
    <connection from=":0_2" to="3o" fromLane="0" toLane="2" via=":0_12_0" dir="l" state="m"/>
    <connection from=":0_12" to="3o" fromLane="0" toLane="2" dir="l" state="M"/>
    <connection from=":0_3" to="4o" fromLane="0" toLane="0" dir="r" state="M"/>
    <connection from=":0_4" to="1o" fromLane="0" toLane="1" dir="s" state="M"/>
    <connection from=":0_5" to="2o" fromLane="0" toLane="2" via=":0_13_0" dir="l" state="m"/>
    <connection from=":0_13" to="2o" fromLane="0" toLane="2" dir="l" state="M"/>
    <connection from=":0_6" to="3o" fromLane="0" toLane="0" dir="r" state="M"/>
    <connection from=":0_7" to="4o" fromLane="0" toLane="1" dir="s" state="M"/>
    <connection from=":0_8" to="1o" fromLane="0" toLane="2" via=":0_14_0" dir="l" state="m"/>
    <connection from=":0_14" to="1o" fromLane="0" toLane="2" dir="l" state="M"/>
    <connection from=":0_9" to="2o" fromLane="0" toLane="0" dir="r" state="M"/>
    <connection from=":0_10" to="3o" fromLane="0" toLane="1" dir="s" state="M"/>
    <connection from=":0_11" to="4o" fromLane="0" toLane="2" via=":0_15_0" dir="l" state="m"/>
    <connection from=":0_15" to="4o" fromLane="0" toLane="2" dir="l" state="M"/>
    <connection from=":1_0" to="51i" fromLane="0" toLane="0" dir="s" state="M"/>
    <connection from=":1_0" to="51i" fromLane="1" toLane="1" dir="s" state="M"/>
    <connection from=":1_0" to="51i" fromLane="2" toLane="2" dir="s" state="M"/>
    <connection from=":1_3" to="1i" fromLane="0" toLane="0" dir="s" state="M"/>
    <connection from=":1_3" to="1i" fromLane="1" toLane="1" dir="s" state="M"/>
    <connection from=":1_3" to="1i" fromLane="2" toLane="2" dir="s" state="M"/>
    <connection from=":2_0" to="3i" fromLane="0" toLane="0" dir="s" state="M"/>
    <connection from=":2_0" to="3i" fromLane="1" toLane="1" dir="s" state="M"/>
    <connection from=":2_0" to="3i" fromLane="2" toLane="2" dir="s" state="M"/>
    <connection from=":2_3" to="52i" fromLane="0" toLane="0" dir="s" state="M"/>
    <connection from=":2_3" to="52i" fromLane="1" toLane="1" dir="s" state="M"/>
    <connection from=":2_3" to="52i" fromLane="2" toLane="2" dir="s" state="M"/>
    <connection from=":3_0" to="53i" fromLane="0" toLane="0" dir="s" state="M"/>
    <connection from=":3_0" to="53i" fromLane="1" toLane="1" dir="s" state="M"/>
    <connection from=":3_0" to="53i" fromLane="2" toLane="2" dir="s" state="M"/>
    <connection from=":3_3" to="2i" fromLane="0" toLane="0" dir="s" state="M"/>
    <connection from=":3_3" to="2i" fromLane="1" toLane="1" dir="s" state="M"/>
    <connection from=":3_3" to="2i" fromLane="2" toLane="2" dir="s" state="M"/>
    <connection from=":4_0" to="4i" fromLane="0" toLane="0" dir="s" state="M"/>
    <connection from=":4_0" to="4i" fromLane="1" toLane="1" dir="s" state="M"/>
    <connection from=":4_0" to="4i" fromLane="2" toLane="2" dir="s" state="M"/>
    <connection from=":4_3" to="54i" fromLane="0" toLane="0" dir="s" state="M"/>
    <connection from=":4_3" to="54i" fromLane="1" toLane="1" dir="s" state="M"/>
    <connection from=":4_3" to="54i" fromLane="2" toLane="2" dir="s" state="M"/>
    <connection from=":51_0" to="51o" fromLane="0" toLane="2" dir="t" state="M"/>
    <connection from=":52_0" to="52o" fromLane="0" toLane="2" dir="t" state="M"/>
    <connection from=":53_0" to="53o" fromLane="0" toLane="2" dir="t" state="M"/>
    <connection from=":54_0" to="54o" fromLane="0" toLane="2" dir="t" state="M"/>

</net>
